** Generated for: hspiceD
** Generated on: Mar 24 14:26:23 2020
** Design library name: 2019_CTDSM_MAGICAL_TAPEOUT
** Design cell name: CTDSM_CORE_NEW
** Design view name: schematic


** .TEMP 25.0
** .OPTION
** +    ARTIST=2
** +    INGOLD=2
** +    PARHIER=LOCAL
** +    PSF=2
** .LIB "/usr/local/packages/tsmc_40/pdk/models/hspice/toplevel.l" top_tt

** Library name: 2019_CTDSM_MAGICAL_TAPEOUT
** Cell name: Gm2_v5_Practice
** View name: schematic
.subckt Gm2_v5_Practice_schematic ibias vdd vim vip vom vop vss
xm20 vdd ibias vdd vdd pch_lvt_mac l=3.6e-6 w=2.8e-6 multi=1 nf=1 sd=140e-9 ad=308e-15 as=308e-15 pd=5.82e-6 ps=5.82e-6 nrd=16.368e-3 nrs=16.368e-3 sa=110e-9 sb=110e-9 sa1=110e-9 sa2=110e-9 sa3=110e-9 sa4=110e-9 sb1=110e-9 sb2=110e-9 sb3=110e-9 spa=3e-6 spa1=3e-6 spa2=3e-6 spa3=3e-6 sap=1.00025e-6 spba=1.83303e-6 sapb=577.831e-9 spba1=2.13766e-6
xm18 vdd ibias vdd vdd pch_lvt_mac l=3.6e-6 w=2.8e-6 multi=1 nf=1 sd=140e-9 ad=308e-15 as=308e-15 pd=5.82e-6 ps=5.82e-6 nrd=16.368e-3 nrs=16.368e-3 sa=110e-9 sb=110e-9 sa1=110e-9 sa2=110e-9 sa3=110e-9 sa4=110e-9 sb1=110e-9 sb2=110e-9 sb3=110e-9 spa=3e-6 spa1=3e-6 spa2=3e-6 spa3=3e-6 sap=1.00025e-6 spba=1.83303e-6 sapb=577.831e-9 spba1=2.13766e-6
xc0 ntail2 vop cfmom_2t nr=46 lr=1e-6 w=70e-9 s=70e-9 stm=2 spm=6 multi=1 ftip=140e-9
xc1 ntail2 vom cfmom_2t nr=46 lr=1e-6 w=70e-9 s=70e-9 stm=2 spm=6 multi=1 ftip=140e-9
xm0 ibias ibias vdd vdd pch_mac l=160e-9 w=700e-9 multi=1 nf=2 sd=160e-9 ad=56e-15 as=77e-15 pd=1.02e-6 ps=1.84e-6 nrd=87.521e-3 nrs=87.521e-3 sa=196.857e-9 sb=196.857e-9 sa1=141.575e-9 sa2=190.476e-9 sa3=316.284e-9 sa4=175.574e-9 sb1=141.575e-9 sb2=190.476e-9 sb3=316.284e-9 spa=526.132e-9 spa1=356.828e-9 spa2=205.731e-9 spa3=258.385e-9 sap=280.768e-9 spba=836.217e-9 sapb=685.762e-9 spba1=838.359e-9
xm24 ibias ibias vdd vdd pch_mac l=160e-9 w=700e-9 multi=1 nf=2 sd=160e-9 ad=56e-15 as=77e-15 pd=1.02e-6 ps=1.84e-6 nrd=87.521e-3 nrs=87.521e-3 sa=196.857e-9 sb=196.857e-9 sa1=141.575e-9 sa2=190.476e-9 sa3=316.284e-9 sa4=175.574e-9 sb1=141.575e-9 sb2=190.476e-9 sb3=316.284e-9 spa=526.132e-9 spa1=356.828e-9 spa2=205.731e-9 spa3=258.385e-9 sap=280.768e-9 spba=836.217e-9 sapb=685.762e-9 spba1=838.359e-9
xm23 vop ibias vdd vdd pch_mac l=160e-9 w=1.4e-6 multi=1 nf=4 sd=160e-9 ad=112e-15 as=133e-15 pd=2.04e-6 ps=2.86e-6 nrd=40.813e-3 nrs=40.813e-3 sa=350.185e-9 sb=350.185e-9 sa1=182.144e-9 sa2=316.736e-9 sa3=531.884e-9 sa4=293.341e-9 sb1=182.144e-9 sb2=316.736e-9 sb3=531.884e-9 spa=293.52e-9 spa1=234.251e-9 spa2=177.709e-9 spa3=196.848e-9 sap=282.393e-9 spba=266.358e-9 sapb=476.716e-9 spba1=272.932e-9
xm14 vom ibias vdd vdd pch_mac l=160e-9 w=1.4e-6 multi=1 nf=4 sd=160e-9 ad=112e-15 as=133e-15 pd=2.04e-6 ps=2.86e-6 nrd=40.813e-3 nrs=40.813e-3 sa=350.185e-9 sb=350.185e-9 sa1=182.144e-9 sa2=316.736e-9 sa3=531.884e-9 sa4=293.341e-9 sb1=182.144e-9 sb2=316.736e-9 sb3=531.884e-9 spa=293.52e-9 spa1=234.251e-9 spa2=177.709e-9 spa3=196.848e-9 sap=282.393e-9 spba=266.358e-9 sapb=476.716e-9 spba1=272.932e-9
**Series configuration of R11
xr11 vom ntail2 vss  rppolywo_m lr=6.6e-6 wr=400e-9 multi=1 m=1 series=9 segspace=250e-9
**End of R11

**Series configuration of R12
xr12 ntail2 vop vss  rppolywo_m lr=6.6e-6 wr=400e-9 multi=1 m=1 series=9 segspace=250e-9
**End of R12

xm22 net100 ntail2 vss vss nch_mac l=160e-9 w=3.12e-6 multi=1 nf=4 sd=160e-9 ad=249.6e-15 as=296.4e-15 pd=3.76e-6 ps=5.44e-6 nrd=11.785e-3 nrs=11.785e-3 sa=350.185e-9 sb=350.185e-9 sa1=182.144e-9 sa2=316.736e-9 sa3=531.884e-9 sa4=293.341e-9 sb1=182.144e-9 sb2=316.736e-9 sb3=531.884e-9 spa=293.52e-9 spa1=234.251e-9 spa2=177.709e-9 spa3=196.848e-9 sap=282.393e-9 spba=266.358e-9 sapb=476.716e-9 spba1=272.932e-9
xm12 vss ntail2 vss vss nch_lvt_mac l=2.2e-6 w=2.1e-6 multi=1 nf=1 sd=140e-9 ad=231e-15 as=231e-15 pd=4.42e-6 ps=4.42e-6 nrd=15.024e-3 nrs=15.024e-3 sa=110e-9 sb=110e-9 sa1=110e-9 sa2=110e-9 sa3=110e-9 sa4=110e-9 sb1=110e-9 sb2=110e-9 sb3=110e-9 spa=3e-6 spa1=3e-6 spa2=3e-6 spa3=3e-6 sap=1.00025e-6 spba=1.79444e-6 sapb=577.831e-9 spba1=1.98202e-6
xm11 vss ntail2 vss vss nch_lvt_mac l=2.2e-6 w=2.1e-6 multi=1 nf=1 sd=140e-9 ad=231e-15 as=231e-15 pd=4.42e-6 ps=4.42e-6 nrd=15.024e-3 nrs=15.024e-3 sa=110e-9 sb=110e-9 sa1=110e-9 sa2=110e-9 sa3=110e-9 sa4=110e-9 sb1=110e-9 sb2=110e-9 sb3=110e-9 spa=3e-6 spa1=3e-6 spa2=3e-6 spa3=3e-6 sap=1.00025e-6 spba=1.79444e-6 sapb=577.831e-9 spba1=1.98202e-6
xm13 vop vim net100 vss nch_lvt_mac l=160e-9 w=1.16e-6 multi=1 nf=4 sd=160e-9 ad=92.8e-15 as=110.2e-15 pd=1.8e-6 ps=2.5e-6 nrd=27.385e-3 nrs=27.385e-3 sa=350.185e-9 sb=350.185e-9 sa1=182.144e-9 sa2=316.736e-9 sa3=531.884e-9 sa4=293.341e-9 sb1=182.144e-9 sb2=316.736e-9 sb3=531.884e-9 spa=293.52e-9 spa1=234.251e-9 spa2=177.709e-9 spa3=196.848e-9 sap=282.393e-9 spba=266.358e-9 sapb=476.716e-9 spba1=272.932e-9
xm21 vom vip net100 vss nch_lvt_mac l=160e-9 w=1.16e-6 multi=1 nf=4 sd=160e-9 ad=92.8e-15 as=110.2e-15 pd=1.8e-6 ps=2.5e-6 nrd=27.385e-3 nrs=27.385e-3 sa=350.185e-9 sb=350.185e-9 sa1=182.144e-9 sa2=316.736e-9 sa3=531.884e-9 sa4=293.341e-9 sb1=182.144e-9 sb2=316.736e-9 sb3=531.884e-9 spa=293.52e-9 spa1=234.251e-9 spa2=177.709e-9 spa3=196.848e-9 sap=282.393e-9 spba=266.358e-9 sapb=476.716e-9 spba1=272.932e-9
.ends Gm2_v5_Practice_schematic
** End of subcircuit definition.

** Library name: 2019_CTDSM_MAGICAL_TAPEOUT
** Cell name: Gm1_v5_Practice
** View name: schematic
.subckt Gm1_v5_Practice_schematic ibias vdd vim vip vom vop vss
xm8 net08 ntail1 vss vss nch_hvt_mac l=120e-9 w=3.22e-6 multi=1 nf=4 sd=140e-9 ad=225.4e-15 as=289.8e-15 pd=3.78e-6 ps=5.55e-6 nrd=13.746e-3 nrs=13.746e-3 sa=313.488e-9 sb=313.488e-9 sa1=179.031e-9 sa2=290.688e-9 sa3=485.728e-9 sa4=276.641e-9 sb1=179.031e-9 sb2=290.688e-9 sb3=485.728e-9 spa=269.255e-9 spa1=211.397e-9 spa2=155.295e-9 spa3=170.776e-9 sap=244.923e-9 spba=223.131e-9 sapb=396.954e-9 spba1=228.22e-9
xm2 vdd ibias vdd vdd pch_lvt_mac l=3.3e-6 w=2.95e-6 multi=1 nf=1 sd=140e-9 ad=324.5e-15 as=324.5e-15 pd=6.12e-6 ps=6.12e-6 nrd=15.641e-3 nrs=15.641e-3 sa=110e-9 sb=110e-9 sa1=110e-9 sa2=110e-9 sa3=110e-9 sa4=110e-9 sb1=110e-9 sb2=110e-9 sb3=110e-9 spa=3e-6 spa1=3e-6 spa2=3e-6 spa3=3e-6 sap=1.00025e-6 spba=1.82483e-6 sapb=577.831e-9 spba1=2.1045e-6
xm4 vdd ibias vdd vdd pch_lvt_mac l=3.3e-6 w=2.95e-6 multi=1 nf=1 sd=140e-9 ad=324.5e-15 as=324.5e-15 pd=6.12e-6 ps=6.12e-6 nrd=15.641e-3 nrs=15.641e-3 sa=110e-9 sb=110e-9 sa1=110e-9 sa2=110e-9 sa3=110e-9 sa4=110e-9 sb1=110e-9 sb2=110e-9 sb3=110e-9 spa=3e-6 spa1=3e-6 spa2=3e-6 spa3=3e-6 sap=1.00025e-6 spba=1.82483e-6 sapb=577.831e-9 spba1=2.1045e-6
xm12 ibias ibias vdd vdd pch_lvt_mac l=120e-9 w=585e-9 multi=1 nf=1 sd=140e-9 ad=64.35e-15 as=64.35e-15 pd=1.39e-6 ps=1.39e-6 nrd=85.492e-3 nrs=85.492e-3 sa=110e-9 sb=110e-9 sa1=110e-9 sa2=110e-9 sa3=110e-9 sa4=110e-9 sb1=110e-9 sb2=110e-9 sb3=110e-9 spa=3e-6 spa1=3e-6 spa2=3e-6 spa3=3e-6 sap=1.00025e-6 spba=1.73551e-6 sapb=577.831e-9 spba1=1.74589e-6
xm11 vom ibias vdd vdd pch_lvt_mac l=120e-9 w=2.34e-6 multi=1 nf=4 sd=140e-9 ad=163.8e-15 as=210.6e-15 pd=2.9e-6 ps=4.23e-6 nrd=19.88e-3 nrs=19.88e-3 sa=313.488e-9 sb=313.488e-9 sa1=179.031e-9 sa2=290.688e-9 sa3=485.728e-9 sa4=276.641e-9 sb1=179.031e-9 sb2=290.688e-9 sb3=485.728e-9 spa=269.255e-9 spa1=211.397e-9 spa2=155.295e-9 spa3=170.776e-9 sap=244.923e-9 spba=223.131e-9 sapb=396.954e-9 spba1=228.22e-9
xm15 ibias ibias vdd vdd pch_lvt_mac l=120e-9 w=585e-9 multi=1 nf=1 sd=140e-9 ad=64.35e-15 as=64.35e-15 pd=1.39e-6 ps=1.39e-6 nrd=85.492e-3 nrs=85.492e-3 sa=110e-9 sb=110e-9 sa1=110e-9 sa2=110e-9 sa3=110e-9 sa4=110e-9 sb1=110e-9 sb2=110e-9 sb3=110e-9 spa=3e-6 spa1=3e-6 spa2=3e-6 spa3=3e-6 sap=1.00025e-6 spba=1.73551e-6 sapb=577.831e-9 spba1=1.74589e-6
xm14 vop ibias vdd vdd pch_lvt_mac l=120e-9 w=2.34e-6 multi=1 nf=4 sd=140e-9 ad=163.8e-15 as=210.6e-15 pd=2.9e-6 ps=4.23e-6 nrd=19.88e-3 nrs=19.88e-3 sa=313.488e-9 sb=313.488e-9 sa1=179.031e-9 sa2=290.688e-9 sa3=485.728e-9 sa4=276.641e-9 sb1=179.031e-9 sb2=290.688e-9 sb3=485.728e-9 spa=269.255e-9 spa1=211.397e-9 spa2=155.295e-9 spa3=170.776e-9 sap=244.923e-9 spba=223.131e-9 sapb=396.954e-9 spba1=228.22e-9
**Series configuration of R12
xr12 ntail1 vop vss  rppolywo_m lr=6.6e-6 wr=400e-9 multi=1 m=1 series=9 segspace=250e-9
**End of R12

**Series configuration of R11
xr11 vom ntail1 vss  rppolywo_m lr=6.6e-6 wr=400e-9 multi=1 m=1 series=9 segspace=250e-9
**End of R11

xm3 vss ntail1 vss vss nch_lvt_mac l=2.2e-6 w=2.5e-6 multi=1 nf=1 sd=140e-9 ad=275e-15 as=275e-15 pd=5.22e-6 ps=5.22e-6 nrd=12.421e-3 nrs=12.421e-3 sa=110e-9 sb=110e-9 sa1=110e-9 sa2=110e-9 sa3=110e-9 sa4=110e-9 sb1=110e-9 sb2=110e-9 sb3=110e-9 spa=3e-6 spa1=3e-6 spa2=3e-6 spa3=3e-6 sap=1.00025e-6 spba=1.79444e-6 sapb=577.831e-9 spba1=1.98202e-6
xm0 vss ntail1 vss vss nch_lvt_mac l=2.2e-6 w=2.5e-6 multi=1 nf=1 sd=140e-9 ad=275e-15 as=275e-15 pd=5.22e-6 ps=5.22e-6 nrd=12.421e-3 nrs=12.421e-3 sa=110e-9 sb=110e-9 sa1=110e-9 sa2=110e-9 sa3=110e-9 sa4=110e-9 sb1=110e-9 sb2=110e-9 sb3=110e-9 spa=3e-6 spa1=3e-6 spa2=3e-6 spa3=3e-6 sap=1.00025e-6 spba=1.79444e-6 sapb=577.831e-9 spba1=1.98202e-6
xm26 vop vim net08 vss nch_lvt_mac l=240e-9 w=3.4e-6 multi=1 nf=8 sd=160e-9 ad=272e-15 as=297.5e-15 pd=4.68e-6 ps=5.65e-6 nrd=8.828e-3 nrs=8.828e-3 sa=739.25e-9 sb=739.25e-9 sa1=242.174e-9 sa2=569.979e-9 sa3=810.357e-9 sa4=546.21e-9 sb1=242.174e-9 sb2=569.979e-9 sb3=810.357e-9 spa=218.802e-9 spa1=193.239e-9 spa2=168.373e-9 spa3=179.161e-9 sap=332.625e-9 spba=284.603e-9 sapb=590.623e-9 spba1=293.014e-9
xm27 vom vip net08 vss nch_lvt_mac l=240e-9 w=3.4e-6 multi=1 nf=8 sd=160e-9 ad=272e-15 as=297.5e-15 pd=4.68e-6 ps=5.65e-6 nrd=8.828e-3 nrs=8.828e-3 sa=739.25e-9 sb=739.25e-9 sa1=242.174e-9 sa2=569.979e-9 sa3=810.357e-9 sa4=546.21e-9 sb1=242.174e-9 sb2=569.979e-9 sb3=810.357e-9 spa=218.802e-9 spa1=193.239e-9 spa2=168.373e-9 spa3=179.161e-9 sap=332.625e-9 spba=284.603e-9 sapb=590.623e-9 spba1=293.014e-9
xc1 ntail1 vop cfmom_2t nr=46 lr=1e-6 w=70e-9 s=70e-9 stm=2 spm=6 multi=1 ftip=140e-9
xc0 ntail1 vom cfmom_2t nr=46 lr=1e-6 w=70e-9 s=70e-9 stm=2 spm=6 multi=1 ftip=140e-9
.ends Gm1_v5_Practice_schematic
** End of subcircuit definition.

** Library name: 2019_CTDSM_MAGICAL
** Cell name: DFCNQD2BWP_LVT
** View name: schematic
.subckt DFCNQD2BWP_LVT d cp cdn q vdd vss
x0 net63 cp vss vss nch_lvt_mac l=40e-9 w=155e-9 multi=1 nf=1 sd=140e-9 ad=17.05e-15 as=17.05e-15 pd=530e-9 ps=530e-9 nrd=451.613e-3 nrs=451.613e-3 sa=110e-9 sb=110e-9 sa1=110e-9 sa2=110e-9 sa3=110e-9 sa4=110e-9 sb1=110e-9 sb2=110e-9 sb3=110e-9 spa=140e-9 spa1=140e-9 spa2=140e-9 spa3=140e-9 sap=130.305e-9 spba=745.547e-9 sapb=1.59028e-6 spba1=745.933e-9
xmi4 net61 net63 vss vss nch_lvt_mac l=40e-9 w=310e-9 multi=1 nf=1 sd=140e-9 ad=34.1e-15 as=34.1e-15 pd=840e-9 ps=840e-9 nrd=225.806e-3 nrs=225.806e-3 sa=110e-9 sb=110e-9 sa1=110e-9 sa2=110e-9 sa3=110e-9 sa4=110e-9 sb1=110e-9 sb2=110e-9 sb3=110e-9 spa=140e-9 spa1=140e-9 spa2=140e-9 spa3=140e-9 sap=130.305e-9 spba=745.547e-9 sapb=1.59028e-6 spba1=745.933e-9
x1 net97 cdn net60 vss nch_lvt_mac l=40e-9 w=210e-9 multi=1 nf=1 sd=140e-9 ad=23.1e-15 as=23.1e-15 pd=640e-9 ps=640e-9 nrd=333.333e-3 nrs=333.333e-3 sa=110e-9 sb=110e-9 sa1=110e-9 sa2=110e-9 sa3=110e-9 sa4=110e-9 sb1=110e-9 sb2=110e-9 sb3=110e-9 spa=140e-9 spa1=140e-9 spa2=140e-9 spa3=140e-9 sap=130.305e-9 spba=745.547e-9 sapb=1.59028e-6 spba1=745.933e-9
x2 net123 net95 vss vss nch_lvt_mac l=40e-9 w=150e-9 multi=1 nf=1 sd=140e-9 ad=16.5e-15 as=16.5e-15 pd=520e-9 ps=520e-9 nrd=466.667e-3 nrs=466.667e-3 sa=110e-9 sb=110e-9 sa1=110e-9 sa2=110e-9 sa3=110e-9 sa4=110e-9 sb1=110e-9 sb2=110e-9 sb3=110e-9 spa=140e-9 spa1=140e-9 spa2=140e-9 spa3=140e-9 sap=130.305e-9 spba=745.547e-9 sapb=1.59028e-6 spba1=745.933e-9
xmi29 net49 net63 net17 vss nch_lvt_mac l=40e-9 w=120e-9 multi=1 nf=1 sd=140e-9 ad=13.2e-15 as=13.2e-15 pd=460e-9 ps=460e-9 nrd=583.333e-3 nrs=583.333e-3 sa=110e-9 sb=110e-9 sa1=110e-9 sa2=110e-9 sa3=110e-9 sa4=110e-9 sb1=110e-9 sb2=110e-9 sb3=110e-9 spa=140e-9 spa1=140e-9 spa2=140e-9 spa3=140e-9 sap=130.305e-9 spba=745.547e-9 sapb=1.59028e-6 spba1=745.933e-9
xmi15 net123 net81 net49 vss nch_lvt_mac l=40e-9 w=150e-9 multi=1 nf=1 sd=140e-9 ad=16.5e-15 as=16.5e-15 pd=520e-9 ps=520e-9 nrd=466.667e-3 nrs=466.667e-3 sa=110e-9 sb=110e-9 sa1=110e-9 sa2=110e-9 sa3=110e-9 sa4=110e-9 sb1=110e-9 sb2=110e-9 sb3=110e-9 spa=140e-9 spa1=140e-9 spa2=140e-9 spa3=140e-9 sap=130.305e-9 spba=745.547e-9 sapb=1.59028e-6 spba1=745.933e-9
x3 net60 net49 vss vss nch_lvt_mac l=40e-9 w=210e-9 multi=1 nf=1 sd=140e-9 ad=23.1e-15 as=23.1e-15 pd=640e-9 ps=640e-9 nrd=333.333e-3 nrs=333.333e-3 sa=110e-9 sb=110e-9 sa1=110e-9 sa2=110e-9 sa3=110e-9 sa4=110e-9 sb1=110e-9 sb2=110e-9 sb3=110e-9 spa=140e-9 spa1=140e-9 spa2=140e-9 spa3=140e-9 sap=130.305e-9 spba=745.547e-9 sapb=1.59028e-6 spba1=745.933e-9
x4 net97 cdn net21 vss nch_lvt_mac l=40e-9 w=210e-9 multi=1 nf=1 sd=140e-9 ad=23.1e-15 as=23.1e-15 pd=640e-9 ps=640e-9 nrd=333.333e-3 nrs=333.333e-3 sa=110e-9 sb=110e-9 sa1=110e-9 sa2=110e-9 sa3=110e-9 sa4=110e-9 sb1=110e-9 sb2=110e-9 sb3=110e-9 spa=140e-9 spa1=140e-9 spa2=140e-9 spa3=140e-9 sap=130.305e-9 spba=745.547e-9 sapb=1.59028e-6 spba1=745.933e-9
x5 net81 net63 vss vss nch_lvt_mac l=40e-9 w=155e-9 multi=1 nf=1 sd=140e-9 ad=17.05e-15 as=17.05e-15 pd=530e-9 ps=530e-9 nrd=451.613e-3 nrs=451.613e-3 sa=110e-9 sb=110e-9 sa1=110e-9 sa2=110e-9 sa3=110e-9 sa4=110e-9 sb1=110e-9 sb2=110e-9 sb3=110e-9 spa=140e-9 spa1=140e-9 spa2=140e-9 spa3=140e-9 sap=130.305e-9 spba=745.547e-9 sapb=1.59028e-6 spba1=745.933e-9
xmi5 net95 d net61 vss nch_lvt_mac l=40e-9 w=310e-9 multi=1 nf=1 sd=140e-9 ad=34.1e-15 as=34.1e-15 pd=840e-9 ps=840e-9 nrd=225.806e-3 nrs=225.806e-3 sa=110e-9 sb=110e-9 sa1=110e-9 sa2=110e-9 sa3=110e-9 sa4=110e-9 sb1=110e-9 sb2=110e-9 sb3=110e-9 spa=140e-9 spa1=140e-9 spa2=140e-9 spa3=140e-9 sap=130.305e-9 spba=745.547e-9 sapb=1.59028e-6 spba1=745.933e-9
xmi49 net25 cdn vss vss nch_lvt_mac l=40e-9 w=120e-9 multi=1 nf=1 sd=140e-9 ad=13.2e-15 as=13.2e-15 pd=460e-9 ps=460e-9 nrd=583.333e-3 nrs=583.333e-3 sa=110e-9 sb=110e-9 sa1=110e-9 sa2=110e-9 sa3=110e-9 sa4=110e-9 sb1=110e-9 sb2=110e-9 sb3=110e-9 spa=140e-9 spa1=140e-9 spa2=140e-9 spa3=140e-9 sap=130.305e-9 spba=745.547e-9 sapb=1.59028e-6 spba1=745.933e-9
x6 net21 net49 vss vss nch_lvt_mac l=40e-9 w=210e-9 multi=1 nf=1 sd=140e-9 ad=23.1e-15 as=23.1e-15 pd=640e-9 ps=640e-9 nrd=333.333e-3 nrs=333.333e-3 sa=110e-9 sb=110e-9 sa1=110e-9 sa2=110e-9 sa3=110e-9 sa4=110e-9 sb1=110e-9 sb2=110e-9 sb3=110e-9 spa=140e-9 spa1=140e-9 spa2=140e-9 spa3=140e-9 sap=130.305e-9 spba=745.547e-9 sapb=1.59028e-6 spba1=745.933e-9
xmi26 net17 net97 vss vss nch_lvt_mac l=40e-9 w=120e-9 multi=1 nf=1 sd=140e-9 ad=13.2e-15 as=13.2e-15 pd=460e-9 ps=460e-9 nrd=583.333e-3 nrs=583.333e-3 sa=110e-9 sb=110e-9 sa1=110e-9 sa2=110e-9 sa3=110e-9 sa4=110e-9 sb1=110e-9 sb2=110e-9 sb3=110e-9 spa=140e-9 spa1=140e-9 spa2=140e-9 spa3=140e-9 sap=130.305e-9 spba=745.547e-9 sapb=1.59028e-6 spba1=745.933e-9
xmi48 net13 net123 net25 vss nch_lvt_mac l=40e-9 w=120e-9 multi=1 nf=1 sd=140e-9 ad=13.2e-15 as=13.2e-15 pd=460e-9 ps=460e-9 nrd=583.333e-3 nrs=583.333e-3 sa=110e-9 sb=110e-9 sa1=110e-9 sa2=110e-9 sa3=110e-9 sa4=110e-9 sb1=110e-9 sb2=110e-9 sb3=110e-9 spa=140e-9 spa1=140e-9 spa2=140e-9 spa3=140e-9 sap=130.305e-9 spba=745.547e-9 sapb=1.59028e-6 spba1=745.933e-9
x7 q net97 vss vss nch_lvt_mac l=40e-9 w=310e-9 multi=1 nf=1 sd=140e-9 ad=34.1e-15 as=34.1e-15 pd=840e-9 ps=840e-9 nrd=225.806e-3 nrs=225.806e-3 sa=110e-9 sb=110e-9 sa1=110e-9 sa2=110e-9 sa3=110e-9 sa4=110e-9 sb1=110e-9 sb2=110e-9 sb3=110e-9 spa=140e-9 spa1=140e-9 spa2=140e-9 spa3=140e-9 sap=130.305e-9 spba=745.547e-9 sapb=1.59028e-6 spba1=745.933e-9
x8 q net97 vss vss nch_lvt_mac l=40e-9 w=310e-9 multi=1 nf=1 sd=140e-9 ad=34.1e-15 as=34.1e-15 pd=840e-9 ps=840e-9 nrd=225.806e-3 nrs=225.806e-3 sa=110e-9 sb=110e-9 sa1=110e-9 sa2=110e-9 sa3=110e-9 sa4=110e-9 sb1=110e-9 sb2=110e-9 sb3=110e-9 spa=140e-9 spa1=140e-9 spa2=140e-9 spa3=140e-9 sap=130.305e-9 spba=745.547e-9 sapb=1.59028e-6 spba1=745.933e-9
xmi47 net95 net81 net13 vss nch_lvt_mac l=40e-9 w=120e-9 multi=1 nf=1 sd=140e-9 ad=13.2e-15 as=13.2e-15 pd=460e-9 ps=460e-9 nrd=583.333e-3 nrs=583.333e-3 sa=110e-9 sb=110e-9 sa1=110e-9 sa2=110e-9 sa3=110e-9 sa4=110e-9 sb1=110e-9 sb2=110e-9 sb3=110e-9 spa=140e-9 spa1=140e-9 spa2=140e-9 spa3=140e-9 sap=130.305e-9 spba=745.547e-9 sapb=1.59028e-6 spba1=745.933e-9
xmi33 net80 net97 vdd vdd pch_lvt_mac l=40e-9 w=120e-9 multi=1 nf=1 sd=140e-9 ad=13.2e-15 as=13.2e-15 pd=460e-9 ps=460e-9 nrd=583.333e-3 nrs=583.333e-3 sa=110e-9 sb=110e-9 sa1=110e-9 sa2=110e-9 sa3=110e-9 sa4=110e-9 sb1=110e-9 sb2=110e-9 sb3=110e-9 spa=140e-9 spa1=140e-9 spa2=140e-9 spa3=140e-9 sap=130.305e-9 spba=745.547e-9 sapb=1.59028e-6 spba1=745.933e-9
x9 q net97 vdd vdd pch_lvt_mac l=40e-9 w=410e-9 multi=1 nf=1 sd=140e-9 ad=45.1e-15 as=45.1e-15 pd=1.04e-6 ps=1.04e-6 nrd=170.732e-3 nrs=170.732e-3 sa=110e-9 sb=110e-9 sa1=110e-9 sa2=110e-9 sa3=110e-9 sa4=110e-9 sb1=110e-9 sb2=110e-9 sb3=110e-9 spa=140e-9 spa1=140e-9 spa2=140e-9 spa3=140e-9 sap=130.305e-9 spba=745.547e-9 sapb=1.59028e-6 spba1=745.933e-9
x10 net97 net49 vdd vdd pch_lvt_mac l=40e-9 w=370e-9 multi=1 nf=1 sd=140e-9 ad=40.7e-15 as=40.7e-15 pd=960e-9 ps=960e-9 nrd=189.189e-3 nrs=189.189e-3 sa=110e-9 sb=110e-9 sa1=110e-9 sa2=110e-9 sa3=110e-9 sa4=110e-9 sb1=110e-9 sb2=110e-9 sb3=110e-9 spa=140e-9 spa1=140e-9 spa2=140e-9 spa3=140e-9 sap=130.305e-9 spba=745.547e-9 sapb=1.59028e-6 spba1=745.933e-9
xmi43 net101 net123 vdd vdd pch_lvt_mac l=40e-9 w=120e-9 multi=1 nf=1 sd=140e-9 ad=13.2e-15 as=13.2e-15 pd=460e-9 ps=460e-9 nrd=583.333e-3 nrs=583.333e-3 sa=110e-9 sb=110e-9 sa1=110e-9 sa2=110e-9 sa3=110e-9 sa4=110e-9 sb1=110e-9 sb2=110e-9 sb3=110e-9 spa=140e-9 spa1=140e-9 spa2=140e-9 spa3=140e-9 sap=130.305e-9 spba=745.547e-9 sapb=1.59028e-6 spba1=745.933e-9
xmi6 net95 d net120 vdd pch_lvt_mac l=40e-9 w=340e-9 multi=1 nf=1 sd=140e-9 ad=37.4e-15 as=37.4e-15 pd=900e-9 ps=900e-9 nrd=205.882e-3 nrs=205.882e-3 sa=110e-9 sb=110e-9 sa1=110e-9 sa2=110e-9 sa3=110e-9 sa4=110e-9 sb1=110e-9 sb2=110e-9 sb3=110e-9 spa=140e-9 spa1=140e-9 spa2=140e-9 spa3=140e-9 sap=130.305e-9 spba=745.547e-9 sapb=1.59028e-6 spba1=745.933e-9
x11 q net97 vdd vdd pch_lvt_mac l=40e-9 w=410e-9 multi=1 nf=1 sd=140e-9 ad=45.1e-15 as=45.1e-15 pd=1.04e-6 ps=1.04e-6 nrd=170.732e-3 nrs=170.732e-3 sa=110e-9 sb=110e-9 sa1=110e-9 sa2=110e-9 sa3=110e-9 sa4=110e-9 sb1=110e-9 sb2=110e-9 sb3=110e-9 spa=140e-9 spa1=140e-9 spa2=140e-9 spa3=140e-9 sap=130.305e-9 spba=745.547e-9 sapb=1.59028e-6 spba1=745.933e-9
x12 net97 net49 vdd vdd pch_lvt_mac l=40e-9 w=370e-9 multi=1 nf=1 sd=140e-9 ad=40.7e-15 as=40.7e-15 pd=960e-9 ps=960e-9 nrd=189.189e-3 nrs=189.189e-3 sa=110e-9 sb=110e-9 sa1=110e-9 sa2=110e-9 sa3=110e-9 sa4=110e-9 sb1=110e-9 sb2=110e-9 sb3=110e-9 spa=140e-9 spa1=140e-9 spa2=140e-9 spa3=140e-9 sap=130.305e-9 spba=745.547e-9 sapb=1.59028e-6 spba1=745.933e-9
x13 net97 cdn vdd vdd pch_lvt_mac l=40e-9 w=370e-9 multi=1 nf=1 sd=140e-9 ad=40.7e-15 as=40.7e-15 pd=960e-9 ps=960e-9 nrd=189.189e-3 nrs=189.189e-3 sa=110e-9 sb=110e-9 sa1=110e-9 sa2=110e-9 sa3=110e-9 sa4=110e-9 sb1=110e-9 sb2=110e-9 sb3=110e-9 spa=140e-9 spa1=140e-9 spa2=140e-9 spa3=140e-9 sap=130.305e-9 spba=745.547e-9 sapb=1.59028e-6 spba1=745.933e-9
xmi44 net101 cdn vdd vdd pch_lvt_mac l=40e-9 w=120e-9 multi=1 nf=1 sd=140e-9 ad=13.2e-15 as=13.2e-15 pd=460e-9 ps=460e-9 nrd=583.333e-3 nrs=583.333e-3 sa=110e-9 sb=110e-9 sa1=110e-9 sa2=110e-9 sa3=110e-9 sa4=110e-9 sb1=110e-9 sb2=110e-9 sb3=110e-9 spa=140e-9 spa1=140e-9 spa2=140e-9 spa3=140e-9 sap=130.305e-9 spba=745.547e-9 sapb=1.59028e-6 spba1=745.933e-9
x14 net97 cdn vdd vdd pch_lvt_mac l=40e-9 w=370e-9 multi=1 nf=1 sd=140e-9 ad=40.7e-15 as=40.7e-15 pd=960e-9 ps=960e-9 nrd=189.189e-3 nrs=189.189e-3 sa=110e-9 sb=110e-9 sa1=110e-9 sa2=110e-9 sa3=110e-9 sa4=110e-9 sb1=110e-9 sb2=110e-9 sb3=110e-9 spa=140e-9 spa1=140e-9 spa2=140e-9 spa3=140e-9 sap=130.305e-9 spba=745.547e-9 sapb=1.59028e-6 spba1=745.933e-9
x15 net123 net95 vdd vdd pch_lvt_mac l=40e-9 w=180e-9 multi=1 nf=1 sd=140e-9 ad=19.8e-15 as=19.8e-15 pd=580e-9 ps=580e-9 nrd=388.889e-3 nrs=388.889e-3 sa=110e-9 sb=110e-9 sa1=110e-9 sa2=110e-9 sa3=110e-9 sa4=110e-9 sb1=110e-9 sb2=110e-9 sb3=110e-9 spa=140e-9 spa1=140e-9 spa2=140e-9 spa3=140e-9 sap=130.305e-9 spba=745.547e-9 sapb=1.59028e-6 spba1=745.933e-9
x16 net63 cp vdd vdd pch_lvt_mac l=40e-9 w=205e-9 multi=1 nf=1 sd=140e-9 ad=22.55e-15 as=22.55e-15 pd=630e-9 ps=630e-9 nrd=341.463e-3 nrs=341.463e-3 sa=110e-9 sb=110e-9 sa1=110e-9 sa2=110e-9 sa3=110e-9 sa4=110e-9 sb1=110e-9 sb2=110e-9 sb3=110e-9 spa=140e-9 spa1=140e-9 spa2=140e-9 spa3=140e-9 sap=130.305e-9 spba=745.547e-9 sapb=1.59028e-6 spba1=745.933e-9
xmi16 net123 net63 net49 vdd pch_lvt_mac l=40e-9 w=180e-9 multi=1 nf=1 sd=140e-9 ad=19.8e-15 as=19.8e-15 pd=580e-9 ps=580e-9 nrd=388.889e-3 nrs=388.889e-3 sa=110e-9 sb=110e-9 sa1=110e-9 sa2=110e-9 sa3=110e-9 sa4=110e-9 sb1=110e-9 sb2=110e-9 sb3=110e-9 spa=140e-9 spa1=140e-9 spa2=140e-9 spa3=140e-9 sap=130.305e-9 spba=745.547e-9 sapb=1.59028e-6 spba1=745.933e-9
x17 net81 net63 vdd vdd pch_lvt_mac l=40e-9 w=205e-9 multi=1 nf=1 sd=140e-9 ad=22.55e-15 as=22.55e-15 pd=630e-9 ps=630e-9 nrd=341.463e-3 nrs=341.463e-3 sa=110e-9 sb=110e-9 sa1=110e-9 sa2=110e-9 sa3=110e-9 sa4=110e-9 sb1=110e-9 sb2=110e-9 sb3=110e-9 spa=140e-9 spa1=140e-9 spa2=140e-9 spa3=140e-9 sap=130.305e-9 spba=745.547e-9 sapb=1.59028e-6 spba1=745.933e-9
xmi32 net49 net81 net80 vdd pch_lvt_mac l=40e-9 w=120e-9 multi=1 nf=1 sd=140e-9 ad=13.2e-15 as=13.2e-15 pd=460e-9 ps=460e-9 nrd=583.333e-3 nrs=583.333e-3 sa=110e-9 sb=110e-9 sa1=110e-9 sa2=110e-9 sa3=110e-9 sa4=110e-9 sb1=110e-9 sb2=110e-9 sb3=110e-9 spa=140e-9 spa1=140e-9 spa2=140e-9 spa3=140e-9 sap=130.305e-9 spba=745.547e-9 sapb=1.59028e-6 spba1=745.933e-9
xmi45 net95 net63 net101 vdd pch_lvt_mac l=40e-9 w=120e-9 multi=1 nf=1 sd=140e-9 ad=13.2e-15 as=13.2e-15 pd=460e-9 ps=460e-9 nrd=583.333e-3 nrs=583.333e-3 sa=110e-9 sb=110e-9 sa1=110e-9 sa2=110e-9 sa3=110e-9 sa4=110e-9 sb1=110e-9 sb2=110e-9 sb3=110e-9 spa=140e-9 spa1=140e-9 spa2=140e-9 spa3=140e-9 sap=130.305e-9 spba=745.547e-9 sapb=1.59028e-6 spba1=745.933e-9
xmi7 net120 net81 vdd vdd pch_lvt_mac l=40e-9 w=340e-9 multi=1 nf=1 sd=140e-9 ad=37.4e-15 as=37.4e-15 pd=900e-9 ps=900e-9 nrd=205.882e-3 nrs=205.882e-3 sa=110e-9 sb=110e-9 sa1=110e-9 sa2=110e-9 sa3=110e-9 sa4=110e-9 sb1=110e-9 sb2=110e-9 sb3=110e-9 spa=140e-9 spa1=140e-9 spa2=140e-9 spa3=140e-9 sap=130.305e-9 spba=745.547e-9 sapb=1.59028e-6 spba1=745.933e-9
.ends DFCNQD2BWP_LVT
** End of subcircuit definition.

** Library name: 2019_CTDSM_MAGICAL_TAPEOUT
** Cell name: C_DAC_CTDSM_DEC2016
** View name: schematic
.subckt C_DAC_CTDSM_DEC2016_schematic clkb in r3 r4 rstb vdd vss
**Series configuration of R27
xr27 r3 net10 vss  rppolywo_m lr=19.92e-6 wr=1.2e-6 multi=1 m=1 series=18 segspace=250e-9
**End of R27

**Series configuration of R64
xr64 r4 in vss  rppolywo_m lr=18.67e-6 wr=1.2e-6 multi=1 m=1 series=4 segspace=250e-9
**End of R64

xi94 in clkb rstb net10 vdd vss DFCNQD2BWP_LVT
.ends C_DAC_CTDSM_DEC2016_schematic
** End of subcircuit definition.

** Library name: 2019_CTDSM_MAGICAL_TAPEOUT
** Cell name: DFCNQD2BWP_LVT
** View name: schematic
.subckt DFCNQD2BWP_LVT_schematic d cp cdn q vdd vss
x0 net63 cp vss vss nch_lvt_mac l=40e-9 w=155e-9 multi=1 nf=1 sd=140e-9 ad=17.05e-15 as=17.05e-15 pd=530e-9 ps=530e-9 nrd=451.613e-3 nrs=451.613e-3 sa=110e-9 sb=110e-9 sa1=110e-9 sa2=110e-9 sa3=110e-9 sa4=110e-9 sb1=110e-9 sb2=110e-9 sb3=110e-9 spa=140e-9 spa1=140e-9 spa2=140e-9 spa3=140e-9 sap=130.305e-9 spba=745.547e-9 sapb=1.59028e-6 spba1=745.933e-9
xmi4 net61 net63 vss vss nch_lvt_mac l=40e-9 w=310e-9 multi=1 nf=1 sd=140e-9 ad=34.1e-15 as=34.1e-15 pd=840e-9 ps=840e-9 nrd=225.806e-3 nrs=225.806e-3 sa=110e-9 sb=110e-9 sa1=110e-9 sa2=110e-9 sa3=110e-9 sa4=110e-9 sb1=110e-9 sb2=110e-9 sb3=110e-9 spa=140e-9 spa1=140e-9 spa2=140e-9 spa3=140e-9 sap=130.305e-9 spba=745.547e-9 sapb=1.59028e-6 spba1=745.933e-9
x1 net97 cdn net60 vss nch_lvt_mac l=40e-9 w=210e-9 multi=1 nf=1 sd=140e-9 ad=23.1e-15 as=23.1e-15 pd=640e-9 ps=640e-9 nrd=333.333e-3 nrs=333.333e-3 sa=110e-9 sb=110e-9 sa1=110e-9 sa2=110e-9 sa3=110e-9 sa4=110e-9 sb1=110e-9 sb2=110e-9 sb3=110e-9 spa=140e-9 spa1=140e-9 spa2=140e-9 spa3=140e-9 sap=130.305e-9 spba=745.547e-9 sapb=1.59028e-6 spba1=745.933e-9
x2 net123 net95 vss vss nch_lvt_mac l=40e-9 w=150e-9 multi=1 nf=1 sd=140e-9 ad=16.5e-15 as=16.5e-15 pd=520e-9 ps=520e-9 nrd=466.667e-3 nrs=466.667e-3 sa=110e-9 sb=110e-9 sa1=110e-9 sa2=110e-9 sa3=110e-9 sa4=110e-9 sb1=110e-9 sb2=110e-9 sb3=110e-9 spa=140e-9 spa1=140e-9 spa2=140e-9 spa3=140e-9 sap=130.305e-9 spba=745.547e-9 sapb=1.59028e-6 spba1=745.933e-9
xmi29 net49 net63 net17 vss nch_lvt_mac l=40e-9 w=120e-9 multi=1 nf=1 sd=140e-9 ad=13.2e-15 as=13.2e-15 pd=460e-9 ps=460e-9 nrd=583.333e-3 nrs=583.333e-3 sa=110e-9 sb=110e-9 sa1=110e-9 sa2=110e-9 sa3=110e-9 sa4=110e-9 sb1=110e-9 sb2=110e-9 sb3=110e-9 spa=140e-9 spa1=140e-9 spa2=140e-9 spa3=140e-9 sap=130.305e-9 spba=745.547e-9 sapb=1.59028e-6 spba1=745.933e-9
xmi15 net123 net81 net49 vss nch_lvt_mac l=40e-9 w=150e-9 multi=1 nf=1 sd=140e-9 ad=16.5e-15 as=16.5e-15 pd=520e-9 ps=520e-9 nrd=466.667e-3 nrs=466.667e-3 sa=110e-9 sb=110e-9 sa1=110e-9 sa2=110e-9 sa3=110e-9 sa4=110e-9 sb1=110e-9 sb2=110e-9 sb3=110e-9 spa=140e-9 spa1=140e-9 spa2=140e-9 spa3=140e-9 sap=130.305e-9 spba=745.547e-9 sapb=1.59028e-6 spba1=745.933e-9
x3 net60 net49 vss vss nch_lvt_mac l=40e-9 w=210e-9 multi=1 nf=1 sd=140e-9 ad=23.1e-15 as=23.1e-15 pd=640e-9 ps=640e-9 nrd=333.333e-3 nrs=333.333e-3 sa=110e-9 sb=110e-9 sa1=110e-9 sa2=110e-9 sa3=110e-9 sa4=110e-9 sb1=110e-9 sb2=110e-9 sb3=110e-9 spa=140e-9 spa1=140e-9 spa2=140e-9 spa3=140e-9 sap=130.305e-9 spba=745.547e-9 sapb=1.59028e-6 spba1=745.933e-9
x4 net97 cdn net21 vss nch_lvt_mac l=40e-9 w=210e-9 multi=1 nf=1 sd=140e-9 ad=23.1e-15 as=23.1e-15 pd=640e-9 ps=640e-9 nrd=333.333e-3 nrs=333.333e-3 sa=110e-9 sb=110e-9 sa1=110e-9 sa2=110e-9 sa3=110e-9 sa4=110e-9 sb1=110e-9 sb2=110e-9 sb3=110e-9 spa=140e-9 spa1=140e-9 spa2=140e-9 spa3=140e-9 sap=130.305e-9 spba=745.547e-9 sapb=1.59028e-6 spba1=745.933e-9
x5 net81 net63 vss vss nch_lvt_mac l=40e-9 w=155e-9 multi=1 nf=1 sd=140e-9 ad=17.05e-15 as=17.05e-15 pd=530e-9 ps=530e-9 nrd=451.613e-3 nrs=451.613e-3 sa=110e-9 sb=110e-9 sa1=110e-9 sa2=110e-9 sa3=110e-9 sa4=110e-9 sb1=110e-9 sb2=110e-9 sb3=110e-9 spa=140e-9 spa1=140e-9 spa2=140e-9 spa3=140e-9 sap=130.305e-9 spba=745.547e-9 sapb=1.59028e-6 spba1=745.933e-9
xmi5 net95 d net61 vss nch_lvt_mac l=40e-9 w=310e-9 multi=1 nf=1 sd=140e-9 ad=34.1e-15 as=34.1e-15 pd=840e-9 ps=840e-9 nrd=225.806e-3 nrs=225.806e-3 sa=110e-9 sb=110e-9 sa1=110e-9 sa2=110e-9 sa3=110e-9 sa4=110e-9 sb1=110e-9 sb2=110e-9 sb3=110e-9 spa=140e-9 spa1=140e-9 spa2=140e-9 spa3=140e-9 sap=130.305e-9 spba=745.547e-9 sapb=1.59028e-6 spba1=745.933e-9
xmi49 net25 cdn vss vss nch_lvt_mac l=40e-9 w=120e-9 multi=1 nf=1 sd=140e-9 ad=13.2e-15 as=13.2e-15 pd=460e-9 ps=460e-9 nrd=583.333e-3 nrs=583.333e-3 sa=110e-9 sb=110e-9 sa1=110e-9 sa2=110e-9 sa3=110e-9 sa4=110e-9 sb1=110e-9 sb2=110e-9 sb3=110e-9 spa=140e-9 spa1=140e-9 spa2=140e-9 spa3=140e-9 sap=130.305e-9 spba=745.547e-9 sapb=1.59028e-6 spba1=745.933e-9
x6 net21 net49 vss vss nch_lvt_mac l=40e-9 w=210e-9 multi=1 nf=1 sd=140e-9 ad=23.1e-15 as=23.1e-15 pd=640e-9 ps=640e-9 nrd=333.333e-3 nrs=333.333e-3 sa=110e-9 sb=110e-9 sa1=110e-9 sa2=110e-9 sa3=110e-9 sa4=110e-9 sb1=110e-9 sb2=110e-9 sb3=110e-9 spa=140e-9 spa1=140e-9 spa2=140e-9 spa3=140e-9 sap=130.305e-9 spba=745.547e-9 sapb=1.59028e-6 spba1=745.933e-9
xmi26 net17 net97 vss vss nch_lvt_mac l=40e-9 w=120e-9 multi=1 nf=1 sd=140e-9 ad=13.2e-15 as=13.2e-15 pd=460e-9 ps=460e-9 nrd=583.333e-3 nrs=583.333e-3 sa=110e-9 sb=110e-9 sa1=110e-9 sa2=110e-9 sa3=110e-9 sa4=110e-9 sb1=110e-9 sb2=110e-9 sb3=110e-9 spa=140e-9 spa1=140e-9 spa2=140e-9 spa3=140e-9 sap=130.305e-9 spba=745.547e-9 sapb=1.59028e-6 spba1=745.933e-9
xmi48 net13 net123 net25 vss nch_lvt_mac l=40e-9 w=120e-9 multi=1 nf=1 sd=140e-9 ad=13.2e-15 as=13.2e-15 pd=460e-9 ps=460e-9 nrd=583.333e-3 nrs=583.333e-3 sa=110e-9 sb=110e-9 sa1=110e-9 sa2=110e-9 sa3=110e-9 sa4=110e-9 sb1=110e-9 sb2=110e-9 sb3=110e-9 spa=140e-9 spa1=140e-9 spa2=140e-9 spa3=140e-9 sap=130.305e-9 spba=745.547e-9 sapb=1.59028e-6 spba1=745.933e-9
x7 q net97 vss vss nch_lvt_mac l=40e-9 w=310e-9 multi=1 nf=1 sd=140e-9 ad=34.1e-15 as=34.1e-15 pd=840e-9 ps=840e-9 nrd=225.806e-3 nrs=225.806e-3 sa=110e-9 sb=110e-9 sa1=110e-9 sa2=110e-9 sa3=110e-9 sa4=110e-9 sb1=110e-9 sb2=110e-9 sb3=110e-9 spa=140e-9 spa1=140e-9 spa2=140e-9 spa3=140e-9 sap=130.305e-9 spba=745.547e-9 sapb=1.59028e-6 spba1=745.933e-9
x8 q net97 vss vss nch_lvt_mac l=40e-9 w=310e-9 multi=1 nf=1 sd=140e-9 ad=34.1e-15 as=34.1e-15 pd=840e-9 ps=840e-9 nrd=225.806e-3 nrs=225.806e-3 sa=110e-9 sb=110e-9 sa1=110e-9 sa2=110e-9 sa3=110e-9 sa4=110e-9 sb1=110e-9 sb2=110e-9 sb3=110e-9 spa=140e-9 spa1=140e-9 spa2=140e-9 spa3=140e-9 sap=130.305e-9 spba=745.547e-9 sapb=1.59028e-6 spba1=745.933e-9
xmi47 net95 net81 net13 vss nch_lvt_mac l=40e-9 w=120e-9 multi=1 nf=1 sd=140e-9 ad=13.2e-15 as=13.2e-15 pd=460e-9 ps=460e-9 nrd=583.333e-3 nrs=583.333e-3 sa=110e-9 sb=110e-9 sa1=110e-9 sa2=110e-9 sa3=110e-9 sa4=110e-9 sb1=110e-9 sb2=110e-9 sb3=110e-9 spa=140e-9 spa1=140e-9 spa2=140e-9 spa3=140e-9 sap=130.305e-9 spba=745.547e-9 sapb=1.59028e-6 spba1=745.933e-9
xmi33 net80 net97 vdd vdd pch_lvt_mac l=40e-9 w=120e-9 multi=1 nf=1 sd=140e-9 ad=13.2e-15 as=13.2e-15 pd=460e-9 ps=460e-9 nrd=583.333e-3 nrs=583.333e-3 sa=110e-9 sb=110e-9 sa1=110e-9 sa2=110e-9 sa3=110e-9 sa4=110e-9 sb1=110e-9 sb2=110e-9 sb3=110e-9 spa=140e-9 spa1=140e-9 spa2=140e-9 spa3=140e-9 sap=130.305e-9 spba=745.547e-9 sapb=1.59028e-6 spba1=745.933e-9
x9 q net97 vdd vdd pch_lvt_mac l=40e-9 w=410e-9 multi=1 nf=1 sd=140e-9 ad=45.1e-15 as=45.1e-15 pd=1.04e-6 ps=1.04e-6 nrd=170.732e-3 nrs=170.732e-3 sa=110e-9 sb=110e-9 sa1=110e-9 sa2=110e-9 sa3=110e-9 sa4=110e-9 sb1=110e-9 sb2=110e-9 sb3=110e-9 spa=140e-9 spa1=140e-9 spa2=140e-9 spa3=140e-9 sap=130.305e-9 spba=745.547e-9 sapb=1.59028e-6 spba1=745.933e-9